  
       XFOIL         Version 6.96
  
 Calculated polar for: Airfoil                                         
  
 1 1 Reynolds number fixed          Mach number fixed         
  
 xtrf =   1.000 (top)        1.000 (bottom)  
 Mach =   0.000     Re =     3.000 e 6     Ncrit =   9.000
  
   alpha    CL        CD       CDp       CM     Top_Xtr  Bot_Xtr
  ------ -------- --------- --------- -------- -------- --------
  -5.000   0.2732   0.00640   0.00188  -0.1856   0.7503   0.0265
  -4.000   0.3875   0.00617   0.00148  -0.1861   0.7181   0.0297
  -3.000   0.5015   0.00601   0.00118  -0.1866   0.6837   0.0340
  -2.000   0.6146   0.00591   0.00100  -0.1869   0.6457   0.0508
  -1.000   0.7272   0.00592   0.00098  -0.1873   0.6083   0.0900
   0.000   0.8390   0.00600   0.00107  -0.1875   0.5726   0.1428
   1.000   0.9503   0.00614   0.00125  -0.1878   0.5411   0.2148
   2.000   1.0611   0.00629   0.00152  -0.1880   0.5146   0.3177
