  
       XFOIL         Version 6.96
  
 Calculated polar for: Airfoil                                         
  
 1 1 Reynolds number fixed          Mach number fixed         
  
 xtrf =   1.000 (top)        1.000 (bottom)  
 Mach =   0.000     Re =     3.000 e 6     Ncrit =   9.000
  
   alpha    CL        CD       CDp       CM     Top_Xtr  Bot_Xtr
  ------ -------- --------- --------- -------- -------- --------
  -5.000   0.1700   0.00658   0.00193  -0.1562   0.7323   0.0253
  -4.000   0.2836   0.00644   0.00161  -0.1565   0.6877   0.0281
  -3.000   0.3967   0.00628   0.00125  -0.1566   0.6385   0.0328
  -2.000   0.5094   0.00626   0.00104  -0.1568   0.5882   0.0404
  -1.000   0.6217   0.00628   0.00100  -0.1570   0.5411   0.0763
   0.000   0.7337   0.00639   0.00108  -0.1572   0.5022   0.1225
   1.000   0.8460   0.00648   0.00124  -0.1575   0.4744   0.1921
   2.000   0.9579   0.00655   0.00148  -0.1578   0.4529   0.3109
