  
       XFOIL         Version 6.96
  
 Calculated polar for: Airfoil                                         
  
 1 1 Reynolds number fixed          Mach number fixed         
  
 xtrf =   1.000 (top)        1.000 (bottom)  
 Mach =   0.000     Re =     3.000 e 6     Ncrit =   9.000
  
   alpha    CL        CD       CDp       CM     Top_Xtr  Bot_Xtr
  ------ -------- --------- --------- -------- -------- --------
  -5.000   0.1317   0.00656   0.00191  -0.1478   0.7416   0.0256
  -4.000   0.2452   0.00641   0.00158  -0.1480   0.6958   0.0282
  -3.000   0.3583   0.00624   0.00120  -0.1482   0.6454   0.0331
  -2.000   0.4710   0.00622   0.00100  -0.1483   0.5925   0.0432
  -1.000   0.5834   0.00622   0.00095  -0.1485   0.5441   0.0826
   0.000   0.6956   0.00632   0.00103  -0.1487   0.5036   0.1304
   1.000   0.8079   0.00640   0.00118  -0.1490   0.4738   0.2062
   2.000   0.9201   0.00642   0.00142  -0.1494   0.4517   0.3492
