  
       XFOIL         Version 6.96
  
 Calculated polar for: Airfoil                                         
  
 1 1 Reynolds number fixed          Mach number fixed         
  
 xtrf =   1.000 (top)        1.000 (bottom)  
 Mach =   0.000     Re =     3.000 e 6     Ncrit =   9.000
  
   alpha    CL        CD       CDp       CM     Top_Xtr  Bot_Xtr
  ------ -------- --------- --------- -------- -------- --------
  -5.000   0.1836   0.00655   0.00192  -0.1601   0.7349   0.0254
  -4.000   0.2973   0.00639   0.00159  -0.1604   0.6926   0.0283
  -3.000   0.4105   0.00623   0.00123  -0.1606   0.6454   0.0329
  -2.000   0.5232   0.00622   0.00104  -0.1607   0.5960   0.0408
  -1.000   0.6354   0.00623   0.00100  -0.1609   0.5500   0.0789
   0.000   0.7476   0.00633   0.00108  -0.1612   0.5123   0.1256
   1.000   0.8596   0.00644   0.00124  -0.1614   0.4832   0.1943
   2.000   0.9715   0.00651   0.00148  -0.1618   0.4617   0.3122
