  
       XFOIL         Version 6.96
  
 Calculated polar for: Airfoil                                         
  
 1 1 Reynolds number fixed          Mach number fixed         
  
 xtrf =   1.000 (top)        1.000 (bottom)  
 Mach =   0.000     Re =     3.000 e 6     Ncrit =   9.000
  
   alpha    CL        CD       CDp       CM     Top_Xtr  Bot_Xtr
  ------ -------- --------- --------- -------- -------- --------
  -5.000   0.2922   0.00643   0.00191  -0.1886   0.7413   0.0261
  -4.000   0.4062   0.00623   0.00153  -0.1891   0.7075   0.0292
  -3.000   0.5198   0.00609   0.00124  -0.1895   0.6712   0.0335
  -2.000   0.6329   0.00602   0.00105  -0.1898   0.6327   0.0456
  -1.000   0.7451   0.00604   0.00103  -0.1901   0.5943   0.0840
   0.000   0.8569   0.00614   0.00113  -0.1904   0.5594   0.1305
   1.000   0.9680   0.00629   0.00131  -0.1906   0.5293   0.1969
   2.000   1.0784   0.00646   0.00159  -0.1907   0.5034   0.2966
