  
       XFOIL         Version 6.96
  
 Calculated polar for: Airfoil                                         
  
 1 1 Reynolds number fixed          Mach number fixed         
  
 xtrf =   1.000 (top)        1.000 (bottom)  
 Mach =   0.000     Re =     3.000 e 6     Ncrit =   9.000
  
   alpha    CL        CD       CDp       CM     Top_Xtr  Bot_Xtr
  ------ -------- --------- --------- -------- -------- --------
  -5.000   0.1695   0.00655   0.00192  -0.1568   0.7368   0.0255
  -4.000   0.2832   0.00639   0.00158  -0.1571   0.6939   0.0283
  -3.000   0.3964   0.00623   0.00122  -0.1573   0.6458   0.0330
  -2.000   0.5090   0.00622   0.00103  -0.1574   0.5955   0.0411
  -1.000   0.6213   0.00623   0.00099  -0.1576   0.5484   0.0802
   0.000   0.7336   0.00631   0.00106  -0.1578   0.5106   0.1273
   1.000   0.8457   0.00642   0.00122  -0.1581   0.4814   0.1975
   2.000   0.9575   0.00649   0.00147  -0.1585   0.4593   0.3202
