  
       XFOIL         Version 6.96
  
 Calculated polar for: Airfoil                                         
  
 1 1 Reynolds number fixed          Mach number fixed         
  
 xtrf =   1.000 (top)        1.000 (bottom)  
 Mach =   0.000     Re =     3.000 e 6     Ncrit =   9.000
  
   alpha    CL        CD       CDp       CM     Top_Xtr  Bot_Xtr
  ------ -------- --------- --------- -------- -------- --------
  -5.000   0.1725   0.00655   0.00192  -0.1576   0.7370   0.0255
  -4.000   0.2862   0.00639   0.00158  -0.1579   0.6946   0.0283
  -3.000   0.3994   0.00623   0.00122  -0.1581   0.6467   0.0330
  -2.000   0.5121   0.00621   0.00103  -0.1582   0.5971   0.0412
  -1.000   0.6243   0.00622   0.00099  -0.1584   0.5502   0.0803
   0.000   0.7365   0.00631   0.00106  -0.1586   0.5122   0.1275
   1.000   0.8486   0.00642   0.00122  -0.1589   0.4827   0.1979
   2.000   0.9605   0.00648   0.00147  -0.1593   0.4608   0.3202
